<?xml version="1.0" encoding="UTF-8"?>
<configuration>
  <input>
    <net-file value="grid.net.xml"/>
    <route-files value="grid.rou.xml"/>
  </input>
  <time>
    <step-length value="1.0"/>
    <end value="3600"/>
  </time>
</configuration>
